Feeder_2_Solar_80_mod2.glm
//Input feeder information for Taxonomy Feeders with different cases.
//Started on 07/19/21. This version created 22-Apr-2023 11:07:33.
clock {
     timezone CST+6CDT;
     starttime '2021-07-01 00:00:00';
     stoptime '2021-07-03 00:00:00';
}

#include "E:\gridlabd_prac\Feeder Generator Scripts\MATLAB Population Script\PopulationScript\InputGLMs\appliance_schedules.glm";
#include "E:\gridlabd_prac\Feeder Generator Scripts\MATLAB Population Script\PopulationScript\InputGLMs\water_and_setpoint_schedule_v5.glm";
#include "E:\gridlabd_prac\Feeder Generator Scripts\MATLAB Population Script\PopulationScript\InputGLMs\commercial_schedules.glm";
//#define stylesheet=http://gridlab-d.svn.sourceforge.net/viewvc/gridlab-d/trunk/core/gridlabd-2_0
#set minimum_timestep=60;
#set profiler=1;
#set relax_naming_rules=1;

module tape;
module generators;
module climate;
module residential {
     implicit_enduses NONE;
};
module powerflow {
     solver_method NR;
     NR_iteration_limit 50;
};

class player {
     double value;
};

object climate {
     name "IL-Chicago";
     tmyfile "IL-Chicago.tmy2";
     interpolate QUADRATIC;
}

object node {     
      name R2-12-47-3_node_517;     
      phases ABCN;     
      voltage_A 7200+0.0j;     
      voltage_B -3600-6235j;     
      voltage_C -3600+6235j;     
      nominal_voltage 7200;     
     bustype SWING;
     groupid node;
}

object node {     
      name R2-12-47-3_node_449;     
      phases ABCN;     
      voltage_A 7200+0.0j;     
      voltage_B -3600-6235j;     
      voltage_C -3600+6235j;     
      nominal_voltage 7200;     
     groupid node;
}

object node {     
      name R2-12-47-3_node_445;     
      phases ABCN;     
      voltage_A 7200+0.0j;     
      voltage_B -3600-6235j;     
      voltage_C -3600+6235j;     
      nominal_voltage 7200;     
     groupid node;
}

object node {     
      name R2-12-47-3_node_450;     
      phases AN;     
      voltage_A 7200+0.0j;     
      nominal_voltage 7200;     
     groupid node;
}

object node {     
      name R2-12-47-3_node_451;     
      phases ABCN;     
      voltage_A 7200+0.0j;     
      voltage_B -3600-6235j;     
      voltage_C -3600+6235j;     
      nominal_voltage 7200;     
     groupid node;
}

object node {     
      name R2-12-47-3_node_657;     
      phases ABCN;     
      voltage_A 7200+0.0j;     
      voltage_B -3600-6235j;     
      voltage_C -3600+6235j;     
      nominal_voltage 7200;     
     groupid node;
}

object node {     
      name R2-12-47-3_node_447;     
      phases AN;     
      voltage_A 7200+0.0j;     
      nominal_voltage 7200;     
     groupid node;
}

object node {     
      name R2-12-47-3_node_444;     
      phases ABCN;     
      voltage_A 7200+0.0j;     
      voltage_B -3600-6235j;     
      voltage_C -3600+6235j;     
      nominal_voltage 7200;     
     groupid node;
}

object node {     
      name R2-12-47-3_node_446;     
      phases BN;     
      voltage_B -3600-6235j;     
      nominal_voltage 7200;     
     groupid node;
}

object triplex_node {     
      name R2-12-47-3_tn_336;     
      phases AS;     
      voltage_1 120;     
      voltage_2 120;     
      voltage_N 0;     
      nominal_voltage 120;     
     groupid tnode;
}

object node {     
      name R2-12-47-3_node_793;     
      phases AN;     
      voltage_A 7200+0.0j;     
      nominal_voltage 7200;     
     groupid node;
}

object node {     
      name R2-12-47-3_node_433;     
      phases ABCN;     
      voltage_A 7200+0.0j;     
      voltage_B -3600-6235j;     
      voltage_C -3600+6235j;     
      nominal_voltage 7200;     
     groupid node;
}

object node {     
      name R2-12-47-3_node_453;     
      phases ABCN;     
      voltage_A 7200+0.0j;     
      voltage_B -3600-6235j;     
      voltage_C -3600+6235j;     
      nominal_voltage 7200;     
     groupid node;
}

object node {     
      name R2-12-47-3_node_525;     
      phases ABCN;     
      voltage_A 7200+0.0j;     
      voltage_B -3600-6235j;     
      voltage_C -3600+6235j;     
      nominal_voltage 7200;     
     groupid node;
}

object node {     
      name R2-12-47-3_node_669;     
      phases BN;     
      voltage_B -3600-6235j;     
      nominal_voltage 7200;     
     groupid node;
}

object node {     
      name R2-12-47-3_node_658;     
      phases AN;     
      voltage_A 7200+0.0j;     
      nominal_voltage 7200;     
     groupid node;
}

object node {     
      name R2-12-47-3_node_659;     
      phases CN;     
      voltage_C -3600+6235j;     
      nominal_voltage 7200;     
     groupid node;
}

object node {     
      name R2-12-47-3_node_660;     
      phases ABCN;     
      voltage_A 7200+0.0j;     
      voltage_B -3600-6235j;     
      voltage_C -3600+6235j;     
      nominal_voltage 7200;     
     groupid node;
}

object node {     
      name R2-12-47-3_node_448;     
      phases AN;     
      voltage_A 7200+0.0j;     
      nominal_voltage 7200;     
     groupid node;
}

object node {     
      name R2-12-47-3_node_441;     
      phases ABCN;     
      voltage_A 7200+0.0j;     
      voltage_B -3600-6235j;     
      voltage_C -3600+6235j;     
      nominal_voltage 7200;     
     groupid node;
}

object triplex_node {     
      name R2-12-47-3_tn_334;     
      phases BS;     
      voltage_1 -60-103.92j;     
      voltage_2 -60-103.92j;     
      voltage_N 0;     
      nominal_voltage 120;     
     groupid tnode;
}

object triplex_meter {     
      name R2-12-47-3_tm_336;     
      phases AS;     
      voltage_1 120;     
      voltage_2 120;     
      voltage_N 0;     
      nominal_voltage 120;     
     groupid tmeter;
}

object triplex_node {     
      name R2-12-47-3_tn_350;     
      phases AS;     
      voltage_1 120;     
      voltage_2 120;     
      voltage_N 0;     
      nominal_voltage 120;     
     groupid tnode;
}

object node {     
      name R2-12-47-3_node_429;     
      phases ABCN;     
      voltage_A 7200+0.0j;     
      voltage_B -3600-6235j;     
      voltage_C -3600+6235j;     
      nominal_voltage 7200;     
     groupid node;
}

object node {     
      name R2-12-47-3_node_434;     
      phases ABCN;     
      voltage_A 7200+0.0j;     
      voltage_B -3600-6235j;     
      voltage_C -3600+6235j;     
      nominal_voltage 7200;     
     groupid node;
}

object node {     
      name R2-12-47-3_node_452;     
      phases ABCN;     
      voltage_A 7200+0.0j;     
      voltage_B -3600-6235j;     
      voltage_C -3600+6235j;     
      nominal_voltage 7200;     
     groupid node;
}

object node {     
      name R2-12-47-3_node_630;     
      phases ABCN;     
      voltage_A 7200+0.0j;     
      voltage_B -3600-6235j;     
      voltage_C -3600+6235j;     
      nominal_voltage 7200;     
     groupid node;
}

object node {     
      name R2-12-47-3_node_526;     
      phases ABCN;     
      voltage_A 7200+0.0j;     
      voltage_B -3600-6235j;     
      voltage_C -3600+6235j;     
      nominal_voltage 7200;     
     groupid node;
}

object node {     
      name R2-12-47-3_node_668;     
      phases BN;     
      voltage_B -3600-6235j;     
      nominal_voltage 7200;     
     groupid node;
}

object triplex_node {     
      name R2-12-47-3_tn_426;     
      phases AS;     
      voltage_1 120;     
      voltage_2 120;     
      voltage_N 0;     
      nominal_voltage 120;     
     groupid tnode;
}

object triplex_node {     
      name R2-12-47-3_tn_427;     
      phases CS;     
      voltage_1 -60+103.92j;     
      voltage_2 -60+103.92j;     
      voltage_N 0;     
      nominal_voltage 120;     
     groupid tnode;
}

object node {     
      name R2-12-47-3_node_673;     
      phases ACN;     
      voltage_A 7200+0.0j;     
      voltage_C -3600+6235j;     
      nominal_voltage 7200;     
     groupid node;
}

object node {     
      name R2-12-47-3_node_661;     
      phases CN;     
      voltage_C -3600+6235j;     
      nominal_voltage 7200;     
     groupid node;
}

object node {     
      name R2-12-47-3_node_662;     
      phases ABCN;     
      voltage_A 7200+0.0j;     
      voltage_B -3600-6235j;     
      voltage_C -3600+6235j;     
      nominal_voltage 7200;     
     groupid node;
}

object triplex_node {     
      name R2-12-47-3_tn_335;     
      phases AS;     
      voltage_1 120;     
      voltage_2 120;     
      voltage_N 0;     
      nominal_voltage 120;     
     groupid tnode;
}

object node {     
      name R2-12-47-3_node_442;     
      phases CN;     
      voltage_C -3600+6235j;     
      nominal_voltage 7200;     
     groupid node;
}

object node {     
      name R2-12-47-3_node_420;     
      phases ABCN;     
      voltage_A 7200+0.0j;     
      voltage_B -3600-6235j;     
      voltage_C -3600+6235j;     
      nominal_voltage 7200;     
     groupid node;
}

object triplex_meter {     
      name R2-12-47-3_tm_334;     
      phases BS;     
      voltage_1 -60-103.92j;     
      voltage_2 -60-103.92j;     
      voltage_N 0;     
      nominal_voltage 120;     
     groupid tmeter;
}

object triplex_meter {     
      name R2-12-47-3_tm_350;     
      phases AS;     
      voltage_1 120;     
      voltage_2 120;     
      voltage_N 0;     
      nominal_voltage 120;     
     groupid tmeter;
}

object node {     
      name R2-12-47-3_node_426;     
      phases BCN;     
      voltage_B -3600-6235j;     
      voltage_C -3600+6235j;     
      nominal_voltage 7200;     
     groupid node;
}

object node {     
      name R2-12-47-3_node_430;     
      phases ABCN;     
      voltage_A 7200+0.0j;     
      voltage_B -3600-6235j;     
      voltage_C -3600+6235j;     
      nominal_voltage 7200;     
     groupid node;
}

object node {     
      name R2-12-47-3_node_432;     
      phases BCN;     
      voltage_B -3600-6235j;     
      voltage_C -3600+6235j;     
      nominal_voltage 7200;     
     groupid node;
}

object triplex_node {     
      name R2-12-47-3_tn_403;     
      phases AS;     
      voltage_1 120;     
      voltage_2 120;     
      voltage_N 0;     
      nominal_voltage 120;     
     groupid tnode;
}

object triplex_node {     
      name R2-12-47-3_tn_404;     
      phases BS;     
      voltage_1 -60-103.92j;     
      voltage_2 -60-103.92j;     
      voltage_N 0;     
      nominal_voltage 120;     
     groupid tnode;
}

object triplex_node {     
      name R2-12-47-3_tn_405;     
      phases CS;     
      voltage_1 -60+103.92j;     
      voltage_2 -60+103.92j;     
      voltage_N 0;     
      nominal_voltage 120;     
     groupid tnode;
}

object node {     
      name R2-12-47-3_node_631;     
      phases ABCN;     
      voltage_A 7200+0.0j;     
      voltage_B -3600-6235j;     
      voltage_C -3600+6235j;     
      nominal_voltage 7200;     
     groupid node;
}

object node {     
      name R2-12-47-3_node_435;     
      phases ABN;     
      voltage_A 7200+0.0j;     
      voltage_B -3600-6235j;     
      nominal_voltage 7200;     
     groupid node;
}

object node {     
      name R2-12-47-3_node_527;     
      phases BN;     
      voltage_B -3600-6235j;     
      nominal_voltage 7200;     
     groupid node;
}

object node {     
      name R2-12-47-3_node_528;     
      phases CN;     
      voltage_C -3600+6235j;     
      nominal_voltage 7200;     
     groupid node;
}

object node {     
      name R2-12-47-3_node_529;     
      phases ABCN;     
      voltage_A 7200+0.0j;     
      voltage_B -3600-6235j;     
      voltage_C -3600+6235j;     
      nominal_voltage 7200;     
     groupid node;
}

object triplex_node {     
      name R2-12-47-3_tn_433;     
      phases BS;     
      voltage_1 -60-103.92j;     
      voltage_2 -60-103.92j;     
      voltage_N 0;     
      nominal_voltage 120;     
     groupid tnode;
}

object node {     
      name R2-12-47-3_node_667;     
      phases BN;     
      voltage_B -3600-6235j;     
      nominal_voltage 7200;     
     groupid node;
}

object triplex_meter {     
      name R2-12-47-3_tm_426;     
      phases AS;     
      voltage_1 120;     
      voltage_2 120;     
      voltage_N 0;     
      nominal_voltage 120;     
     groupid tmeter;
}

object triplex_meter {     
      name R2-12-47-3_tm_427;     
      phases CS;     
      voltage_1 -60+103.92j;     
      voltage_2 -60+103.92j;     
      voltage_N 0;     
      nominal_voltage 120;     
     groupid tmeter;
}

object node {     
      name R2-12-47-3_node_672;     
      phases AN;     
      voltage_A 7200+0.0j;     
      nominal_voltage 7200;     
     groupid node;
}

object node {     
      name R2-12-47-3_node_676;     
      phases CN;     
      voltage_C -3600+6235j;     
      nominal_voltage 7200;     
     groupid node;
}

object triplex_node {     
      name R2-12-47-3_tn_428;     
      phases CS;     
      voltage_1 -60+103.92j;     
      voltage_2 -60+103.92j;     
      voltage_N 0;     
      nominal_voltage 120;     
     groupid tnode;
}

object node {     
      name R2-12-47-3_node_742;     
      phases AN;     
      voltage_A 7200+0.0j;     
      nominal_voltage 7200;     
     groupid node;
}

object node {     
      name R2-12-47-3_node_663;     
      phases CN;     
      voltage_C -3600+6235j;     
      nominal_voltage 7200;     
     groupid node;
}

object node {     
      name R2-12-47-3_node_665;     
      phases ABCN;     
      voltage_A 7200+0.0j;     
      voltage_B -3600-6235j;     
      voltage_C -3600+6235j;     
      nominal_voltage 7200;     
     groupid node;
}

object node {     
      name R2-12-47-3_node_733;     
      phases BN;     
      voltage_B -3600-6235j;     
      nominal_voltage 7200;     
     groupid node;
}

object triplex_meter {     
      name R2-12-47-3_tm_335;     
      phases AS;     
      voltage_1 120;     
      voltage_2 120;     
      voltage_N 0;     
      nominal_voltage 120;     
     groupid tmeter;
}

object triplex_node {     
      name R2-12-47-3_tn_332;     
      phases CS;     
      voltage_1 -60+103.92j;     
      voltage_2 -60+103.92j;     
      voltage_N 0;     
      nominal_voltage 120;     
     groupid tnode;
}

object node {     
      name R2-12-47-3_node_414;     
      phases ABCN;     
      voltage_A 7200+0.0j;     
      voltage_B -3600-6235j;     
      voltage_C -3600+6235j;     
      nominal_voltage 7200;     
     groupid node;
}

object node {     
      name R2-12-47-3_node_421;     
      phases CN;     
      voltage_C -3600+6235j;     
      nominal_voltage 7200;     
     groupid node;
}

object node {     
      name R2-12-47-3_node_422;     
      phases BCN;     
      voltage_B -3600-6235j;     
      voltage_C -3600+6235j;     
      nominal_voltage 7200;     
     groupid node;
}

object node {     
      name R2-12-47-3_node_443;     
      phases BN;     
      voltage_B -3600-6235j;     
      nominal_voltage 7200;     
     groupid node;
}

object node {     
      name R2-12-47-3_node_532;     
      phases ABCN;     
      voltage_A 7200+0.0j;     
      voltage_B -3600-6235j;     
      voltage_C -3600+6235j;     
      nominal_voltage 7200;     
     groupid node;
}

object node {     
      name R2-12-47-3_node_533;     
      phases ABCN;     
      voltage_A 7200+0.0j;     
      voltage_B -3600-6235j;     
      voltage_C -3600+6235j;     
      nominal_voltage 7200;     
     groupid node;
}

object triplex_meter {     
      name R2-12-47-3_tm_403;     
      phases AS;     
      voltage_1 120;     
      voltage_2 120;     
      voltage_N 0;     
      nominal_voltage 120;     
     groupid tmeter;
}

object triplex_meter {     
      name R2-12-47-3_tm_404;     
      phases BS;     
      voltage_1 -60-103.92j;     
      voltage_2 -60-103.92j;     
      voltage_N 0;     
      nominal_voltage 120;     
     groupid tmeter;
}

object triplex_meter {     
      name R2-12-47-3_tm_405;     
      phases CS;     
      voltage_1 -60+103.92j;     
      voltage_2 -60+103.92j;     
      voltage_N 0;     
      nominal_voltage 120;     
     groupid tmeter;
}

object triplex_node {     
      name R2-12-47-3_tn_406;     
      phases AS;     
      voltage_1 120;     
      voltage_2 120;     
      voltage_N 0;     
      nominal_voltage 120;     
     groupid tnode;
}

object triplex_node {     
      name R2-12-47-3_tn_407;     
      phases BS;     
      voltage_1 -60-103.92j;     
      voltage_2 -60-103.92j;     
      voltage_N 0;     
      nominal_voltage 120;     
     groupid tnode;
}

object triplex_node {     
      name R2-12-47-3_tn_408;     
      phases CS;     
      voltage_1 -60+103.92j;     
      voltage_2 -60+103.92j;     
      voltage_N 0;     
      nominal_voltage 120;     
     groupid tnode;
}

object node {     
      name R2-12-47-3_node_636;     
      phases ABCN;     
      voltage_A 7200+0.0j;     
      voltage_B -3600-6235j;     
      voltage_C -3600+6235j;     
      nominal_voltage 7200;     
     groupid node;
}

object node {     
      name R2-12-47-3_node_436;     
      phases AN;     
      voltage_A 7200+0.0j;     
      nominal_voltage 7200;     
     groupid node;
}

object node {     
      name R2-12-47-3_node_437;     
      phases BN;     
      voltage_B -3600-6235j;     
      nominal_voltage 7200;     
     groupid node;
}

object triplex_node {     
      name R2-12-47-3_tn_351;     
      phases BS;     
      voltage_1 -60-103.92j;     
      voltage_2 -60-103.92j;     
      voltage_N 0;     
      nominal_voltage 120;     
     groupid tnode;
}

object triplex_node {     
      name R2-12-47-3_tn_352;     
      phases CS;     
      voltage_1 -60+103.92j;     
      voltage_2 -60+103.92j;     
      voltage_N 0;     
      nominal_voltage 120;     
     groupid tnode;
}

object node {     
      name R2-12-47-3_node_800;     
      phases ABCN;     
      voltage_A 7200+0.0j;     
      voltage_B -3600-6235j;     
      voltage_C -3600+6235j;     
      nominal_voltage 7200;     
     groupid node;
}

object node {     
      name R2-12-47-3_node_530;     
      phases CN;     
      voltage_C -3600+6235j;     
      nominal_voltage 7200;     
     groupid node;
}

object node {     
      name R2-12-47-3_node_531;     
      phases BCN;     
      voltage_B -3600-6235j;     
      voltage_C -3600+6235j;     
      nominal_voltage 7200;     
     groupid node;
}

object triplex_meter {     
      name R2-12-47-3_tm_433;     
      phases BS;     
      voltage_1 -60-103.92j;     
      voltage_2 -60-103.92j;     
      voltage_N 0;     
      nominal_voltage 120;     
     groupid tmeter;
}

object triplex_node {     
      name R2-12-47-3_tn_432;     
      phases BS;     
      voltage_1 -60-103.92j;     
      voltage_2 -60-103.92j;     
      voltage_N 0;     
      nominal_voltage 120;     
     groupid tnode;
}

object node {     
      name R2-12-47-3_node_816;     
      phases BN;     
      voltage_B -3600-6235j;     
      nominal_voltage 7200;     
     groupid node;
}

object node {     
      name R2-12-47-3_node_671;     
      phases AN;     
      voltage_A 7200+0.0j;     
      nominal_voltage 7200;     
     groupid node;
}

object node {     
      name R2-12-47-3_node_675;     
      phases CN;     
      voltage_C -3600+6235j;     
      nominal_voltage 7200;     
     groupid node;
}

object triplex_meter {     
      name R2-12-47-3_tm_428;     
      phases CS;     
      voltage_1 -60+103.92j;     
      voltage_2 -60+103.92j;     
      voltage_N 0;     
      nominal_voltage 120;     
     groupid tmeter;
}

object node {     
      name R2-12-47-3_node_741;     
      phases AN;     
      voltage_A 7200+0.0j;     
      nominal_voltage 7200;     
     groupid node;
}

object triplex_node {     
      name R2-12-47-3_tn_429;     
      phases CS;     
      voltage_1 -60+103.92j;     
      voltage_2 -60+103.92j;     
      voltage_N 0;     
      nominal_voltage 120;     
     groupid tnode;
}

object node {     
      name R2-12-47-3_node_664;     
      phases BN;     
      voltage_B -3600-6235j;     
      nominal_voltage 7200;     
     groupid node;
}

object node {     
      name R2-12-47-3_node_732;     
      phases BN;     
      voltage_B -3600-6235j;     
      nominal_voltage 7200;     
     groupid node;
}

object triplex_meter {     
      name R2-12-47-3_tm_332;     
      phases CS;     
      voltage_1 -60+103.92j;     
      voltage_2 -60+103.92j;     
      voltage_N 0;     
      nominal_voltage 120;     
     groupid tmeter;
}

object node {     
      name R2-12-47-3_node_403;     
      phases ABCN;     
      voltage_A 7200+0.0j;     
      voltage_B -3600-6235j;     
      voltage_C -3600+6235j;     
      nominal_voltage 7200;     
     groupid node;
}

object node {     
      name R2-12-47-3_node_415;     
      phases CN;     
      voltage_C -3600+6235j;     
      nominal_voltage 7200;     
     groupid node;
}

object node {     
      name R2-12-47-3_node_552;     
      phases ABCN;     
      voltage_A 7200+0.0j;     
      voltage_B -3600-6235j;     
      voltage_C -3600+6235j;     
      nominal_voltage 7200;     
     groupid node;
}

object triplex_node {     
      name R2-12-47-3_tn_321;     
      phases CS;     
      voltage_1 -60+103.92j;     
      voltage_2 -60+103.92j;     
      voltage_N 0;     
      nominal_voltage 120;     
     groupid tnode;
}

object node {     
      name R2-12-47-3_node_423;     
      phases BN;     
      voltage_B -3600-6235j;     
      nominal_voltage 7200;     
     groupid node;
}

object node {     
      name R2-12-47-3_node_424;     
      phases CN;     
      voltage_C -3600+6235j;     
      nominal_voltage 7200;     
     groupid node;
}

object triplex_node {     
      name R2-12-47-3_tn_333;     
      phases BS;     
      voltage_1 -60-103.92j;     
      voltage_2 -60-103.92j;     
      voltage_N 0;     
      nominal_voltage 120;     
     groupid tnode;
}

object node {     
      name R2-12-47-3_node_801;     
      phases ABCN;     
      voltage_A 7200+0.0j;     
      voltage_B -3600-6235j;     
      voltage_C -3600+6235j;     
      nominal_voltage 7200;     
     groupid node;
}

object triplex_meter {     
      name R2-12-47-3_tm_406;     
      phases AS;     
      voltage_1 120;     
      voltage_2 120;     
      voltage_N 0;     
      nominal_voltage 120;     
     groupid tmeter;
}

object triplex_meter {     
      name R2-12-47-3_tm_407;     
      phases BS;     
      voltage_1 -60-103.92j;     
      voltage_2 -60-103.92j;     
      voltage_N 0;     
      nominal_voltage 120;     
     groupid tmeter;
}

object triplex_meter {     
      name R2-12-47-3_tm_408;     
      phases CS;     
      voltage_1 -60+103.92j;     
      voltage_2 -60+103.92j;     
      voltage_N 0;     
      nominal_voltage 120;     
     groupid tmeter;
}

object node {     
      name R2-12-47-3_node_812;     
      phases CN;     
      voltage_C -3600+6235j;     
      nominal_voltage 7200;     
     groupid node;
}

object node {     
      name R2-12-47-3_node_637;     
      phases ABCN;     
      voltage_A 7200+0.0j;     
      voltage_B -3600-6235j;     
      voltage_C -3600+6235j;     
      nominal_voltage 7200;     
     groupid node;
}

object node {     
      name R2-12-47-3_node_666;     
      phases ABCN;     
      voltage_A 7200+0.0j;     
      voltage_B -3600-6235j;     
      voltage_C -3600+6235j;     
      nominal_voltage 7200;     
     groupid node;
}

object node {     
      name R2-12-47-3_node_438;     
      phases AN;     
      voltage_A 7200+0.0j;     
      nominal_voltage 7200;     
     groupid node;
}

object triplex_node {     
      name R2-12-47-3_tn_327;     
      phases BS;     
      voltage_1 -60-103.92j;     
      voltage_2 -60-103.92j;     
      voltage_N 0;     
      nominal_voltage 120;     
     groupid tnode;
}

object node {     
      name R2-12-47-3_node_440;     
      phases BN;     
      voltage_B -3600-6235j;     
      nominal_voltage 7200;     
     groupid node;
}

object triplex_meter {     
      name R2-12-47-3_tm_351;     
      phases BS;     
      voltage_1 -60-103.92j;     
      voltage_2 -60-103.92j;     
      voltage_N 0;     
      nominal_voltage 120;     
     groupid tmeter;
}

object triplex_meter {     
      name R2-12-47-3_tm_352;     
      phases CS;     
      voltage_1 -60+103.92j;     
      voltage_2 -60+103.92j;     
      voltage_N 0;     
      nominal_voltage 120;     
     groupid tmeter;
}

object triplex_node {     
      name R2-12-47-3_tn_353;     
      phases CS;     
      voltage_1 -60+103.92j;     
      voltage_2 -60+103.92j;     
      voltage_N 0;     
      nominal_voltage 120;     
     groupid tnode;
}

object node {     
      name R2-12-47-3_node_791;     
      phases BN;     
      voltage_B -3600-6235j;     
      nominal_voltage 7200;     
     groupid node;
}

object node {     
      name R2-12-47-3_node_792;     
      phases CN;     
      voltage_C -3600+6235j;     
      nominal_voltage 7200;     
     groupid node;
}

object triplex_meter {     
      name R2-12-47-3_tm_432;     
      phases BS;     
      voltage_1 -60-103.92j;     
      voltage_2 -60-103.92j;     
      voltage_N 0;     
      nominal_voltage 120;     
     groupid tmeter;
}

object triplex_node {     
      name R2-12-47-3_tn_431;     
      phases BS;     
      voltage_1 -60-103.92j;     
      voltage_2 -60-103.92j;     
      voltage_N 0;     
      nominal_voltage 120;     
     groupid tnode;
}

object triplex_node {     
      name R2-12-47-3_tn_435;     
      phases AS;     
      voltage_1 120;     
      voltage_2 120;     
      voltage_N 0;     
      nominal_voltage 120;     
     groupid tnode;
}

object node {     
      name R2-12-47-3_node_817;     
      phases AN;     
      voltage_A 7200+0.0j;     
      nominal_voltage 7200;     
     groupid node;
}

object triplex_node {     
      name R2-12-47-3_tn_437;     
      phases CS;     
      voltage_1 -60+103.92j;     
      voltage_2 -60+103.92j;     
      voltage_N 0;     
      nominal_voltage 120;     
     groupid tnode;
}

object node {     
      name R2-12-47-3_node_818;     
      phases CN;     
      voltage_C -3600+6235j;     
      nominal_voltage 7200;     
     groupid node;
}

object node {     
      name R2-12-47-3_node_746;     
      phases AN;     
      voltage_A 7200+0.0j;     
      nominal_voltage 7200;     
     groupid node;
}

object triplex_node {     
      name R2-12-47-3_tn_481;     
      phases AS;     
      voltage_1 120;     
      voltage_2 120;     
      voltage_N 0;     
      nominal_voltage 120;     
     groupid tnode;
}

object node {     
      name R2-12-47-3_node_740;     
      phases AN;     
      voltage_A 7200+0.0j;     
      nominal_voltage 7200;     
     groupid node;
}

object triplex_meter {     
      name R2-12-47-3_tm_429;     
      phases CS;     
      voltage_1 -60+103.92j;     
      voltage_2 -60+103.92j;     
      voltage_N 0;     
      nominal_voltage 120;     
     groupid tmeter;
}

object triplex_node {     
      name R2-12-47-3_tn_430;     
      phases BS;     
      voltage_1 -60-103.92j;     
      voltage_2 -60-103.92j;     
      voltage_N 0;     
      nominal_voltage 120;     
     groupid tnode;
}

object node {     
      name R2-12-47-3_node_822;     
      phases BN;     
      voltage_B -3600-6235j;     
      nominal_voltage 7200;     
     groupid node;
}

object node {     
      name R2-12-47-3_node_514;     
      phases ABCN;     
      voltage_A 7200+0.0j;     
      voltage_B -3600-6235j;     
      voltage_C -3600+6235j;     
      nominal_voltage 7200;     
     groupid node;
}

object triplex_node {     
      name R2-12-47-3_tn_317;     
      phases CS;     
      voltage_1 -60+103.92j;     
      voltage_2 -60+103.92j;     
      voltage_N 0;     
      nominal_voltage 120;     
     groupid tnode;
}

object node {     
      name R2-12-47-3_node_416;     
      phases ABCN;     
      voltage_A 7200+0.0j;     
      voltage_B -3600-6235j;     
      voltage_C -3600+6235j;     
      nominal_voltage 7200;     
     groupid node;
}

object triplex_meter {     
      name R2-12-47-3_tm_321;     
      phases CS;     
      voltage_1 -60+103.92j;     
      voltage_2 -60+103.92j;     
      voltage_N 0;     
      nominal_voltage 120;     
     groupid tmeter;
}

object triplex_node {     
      name R2-12-47-3_tn_322;     
      phases BS;     
      voltage_1 -60-103.92j;     
      voltage_2 -60-103.92j;     
      voltage_N 0;     
      nominal_voltage 120;     
     groupid tnode;
}

object node {     
      name R2-12-47-3_node_425;     
      phases BN;     
      voltage_B -3600-6235j;     
      nominal_voltage 7200;     
     groupid node;
}

object triplex_node {     
      name R2-12-47-3_tn_323;     
      phases CS;     
      voltage_1 -60+103.92j;     
      voltage_2 -60+103.92j;     
      voltage_N 0;     
      nominal_voltage 120;     
     groupid tnode;
}

object node {     
      name R2-12-47-3_node_427;     
      phases CN;     
      voltage_C -3600+6235j;     
      nominal_voltage 7200;     
     groupid node;
}

object triplex_meter {     
      name R2-12-47-3_tm_333;     
      phases BS;     
      voltage_1 -60-103.92j;     
      voltage_2 -60-103.92j;     
      voltage_N 0;     
      nominal_voltage 120;     
     groupid tmeter;
}

object triplex_node {     
      name R2-12-47-3_tn_409;     
      phases AS;     
      voltage_1 120;     
      voltage_2 120;     
      voltage_N 0;     
      nominal_voltage 120;     
     groupid tnode;
}

object triplex_node {     
      name R2-12-47-3_tn_410;     
      phases BS;     
      voltage_1 -60-103.92j;     
      voltage_2 -60-103.92j;     
      voltage_N 0;     
      nominal_voltage 120;     
     groupid tnode;
}

object triplex_node {     
      name R2-12-47-3_tn_411;     
      phases CS;     
      voltage_1 -60+103.92j;     
      voltage_2 -60+103.92j;     
      voltage_N 0;     
      nominal_voltage 120;     
     groupid tnode;
}

object node {     
      name R2-12-47-3_node_638;     
      phases ABCN;     
      voltage_A 7200+0.0j;     
      voltage_B -3600-6235j;     
      voltage_C -3600+6235j;     
      nominal_voltage 7200;     
     groupid node;
}

object node {     
      name R2-12-47-3_node_681;     
      phases BN;     
      voltage_B -3600-6235j;     
      nominal_voltage 7200;     
     groupid node;
}

object node {     
      name R2-12-47-3_node_670;     
      phases ABCN;     
      voltage_A 7200+0.0j;     
      voltage_B -3600-6235j;     
      voltage_C -3600+6235j;     
      nominal_voltage 7200;     
     groupid node;
}

object triplex_node {     
      name R2-12-47-3_tn_328;     
      phases AS;     
      voltage_1 120;     
      voltage_2 120;     
      voltage_N 0;     
      nominal_voltage 120;     
     groupid tnode;
}

object node {     
      name R2-12-47-3_node_439;     
      phases AN;     
      voltage_A 7200+0.0j;     
      nominal_voltage 7200;     
     groupid node;
}

object triplex_meter {     
      name R2-12-47-3_tm_327;     
      phases BS;     
      voltage_1 -60-103.92j;     
      voltage_2 -60-103.92j;     
      voltage_N 0;     
      nominal_voltage 120;     
     groupid tmeter;
}

object triplex_node {     
      name R2-12-47-3_tn_330;     
      phases BS;     
      voltage_1 -60-103.92j;     
      voltage_2 -60-103.92j;     
      voltage_N 0;     
      nominal_voltage 120;     
     groupid tnode;
}

object node {     
      name R2-12-47-3_node_766;     
      phases BN;     
      voltage_B -3600-6235j;     
      nominal_voltage 7200;     
     groupid node;
}

object triplex_meter {     
      name R2-12-47-3_tm_353;     
      phases CS;     
      voltage_1 -60+103.92j;     
      voltage_2 -60+103.92j;     
      voltage_N 0;     
      nominal_voltage 120;     
     groupid tmeter;
}

object triplex_meter {     
      name R2-12-47-3_tm_431;     
      phases BS;     
      voltage_1 -60-103.92j;     
      voltage_2 -60-103.92j;     
      voltage_N 0;     
      nominal_voltage 120;     
     groupid tmeter;
}

object triplex_meter {     
      name R2-12-47-3_tm_435;     
      phases AS;     
      voltage_1 120;     
      voltage_2 120;     
      voltage_N 0;     
      nominal_voltage 120;     
     groupid tmeter;
}

object triplex_node {     
      name R2-12-47-3_tn_434;     
      phases AS;     
      voltage_1 120;     
      voltage_2 120;     
      voltage_N 0;     
      nominal_voltage 120;     
     groupid tnode;
}

object triplex_meter {     
      name R2-12-47-3_tm_437;     
      phases CS;     
      voltage_1 -60+103.92j;     
      voltage_2 -60+103.92j;     
      voltage_N 0;     
      nominal_voltage 120;     
     groupid tmeter;
}

object triplex_node {     
      name R2-12-47-3_tn_436;     
      phases CS;     
      voltage_1 -60+103.92j;     
      voltage_2 -60+103.92j;     
      voltage_N 0;     
      nominal_voltage 120;     
     groupid tnode;
}

object node {     
      name R2-12-47-3_node_824;     
      phases AN;     
      voltage_A 7200+0.0j;     
      nominal_voltage 7200;     
     groupid node;
}

object triplex_meter {     
      name R2-12-47-3_tm_481;     
      phases AS;     
      voltage_1 120;     
      voltage_2 120;     
      voltage_N 0;     
      nominal_voltage 120;     
     groupid tmeter;
}

object node {     
      name R2-12-47-3_node_739;     
      phases AN;     
      voltage_A 7200+0.0j;     
      nominal_voltage 7200;     
     groupid node;
}

object triplex_meter {     
      name R2-12-47-3_tm_430;     
      phases BS;     
      voltage_1 -60-103.92j;     
      voltage_2 -60-103.92j;     
      voltage_N 0;     
      nominal_voltage 120;     
     groupid tmeter;
}

object triplex_node {     
      name R2-12-47-3_tn_474;     
      phases BS;     
      voltage_1 -60-103.92j;     
      voltage_2 -60-103.92j;     
      voltage_N 0;     
      nominal_voltage 120;     
     groupid tnode;
}

object node {     
      name R2-12-47-3_node_515;     
      phases BN;     
      voltage_B -3600-6235j;     
      nominal_voltage 7200;     
     groupid node;
}

object node {     
      name R2-12-47-3_node_409;     
      phases ABCN;     
      voltage_A 7200+0.0j;     
      voltage_B -3600-6235j;     
      voltage_C -3600+6235j;     
      nominal_voltage 7200;     
     groupid node;
}

object triplex_meter {     
      name R2-12-47-3_tm_317;     
      phases CS;     
      voltage_1 -60+103.92j;     
      voltage_2 -60+103.92j;     
      voltage_N 0;     
      nominal_voltage 120;     
     groupid tmeter;
}

object node {     
      name R2-12-47-3_node_417;     
      phases AN;     
      voltage_A 7200+0.0j;     
      nominal_voltage 7200;     
     groupid node;
}

object node {     
      name R2-12-47-3_node_419;     
      phases CN;     
      voltage_C -3600+6235j;     
      nominal_voltage 7200;     
     groupid node;
}

object node {     
      name R2-12-47-3_node_431;     
      phases ABCN;     
      voltage_A 7200+0.0j;     
      voltage_B -3600-6235j;     
      voltage_C -3600+6235j;     
      nominal_voltage 7200;     
     groupid node;
}

object node {     
      name R2-12-47-3_node_553;     
      phases ABCN;     
      voltage_A 7200+0.0j;     
      voltage_B -3600-6235j;     
      voltage_C -3600+6235j;     
      nominal_voltage 7200;     
     groupid node;
}

object triplex_meter {     
      name R2-12-47-3_tm_322;     
      phases BS;     
      voltage_1 -60-103.92j;     
      voltage_2 -60-103.92j;     
      voltage_N 0;     
      nominal_voltage 120;     
     groupid tmeter;
}

object triplex_node {     
      name R2-12-47-3_tn_324;     
      phases BS;     
      voltage_1 -60-103.92j;     
      voltage_2 -60-103.92j;     
      voltage_N 0;     
      nominal_voltage 120;     
     groupid tnode;
}

object triplex_meter {     
      name R2-12-47-3_tm_323;     
      phases CS;     
      voltage_1 -60+103.92j;     
      voltage_2 -60+103.92j;     
      voltage_N 0;     
      nominal_voltage 120;     
     groupid tmeter;
}

object triplex_node {     
      name R2-12-47-3_tn_325;     
      phases CS;     
      voltage_1 -60+103.92j;     
      voltage_2 -60+103.92j;     
      voltage_N 0;     
      nominal_voltage 120;     
     groupid tnode;
}

object node {     
      name R2-12-47-3_node_428;     
      phases CN;     
      voltage_C -3600+6235j;     
      nominal_voltage 7200;     
     groupid node;
}

object triplex_meter {     
      name R2-12-47-3_tm_409;     
      phases AS;     
      voltage_1 120;     
      voltage_2 120;     
      voltage_N 0;     
      nominal_voltage 120;     
     groupid tmeter;
}

object triplex_meter {     
      name R2-12-47-3_tm_410;     
      phases BS;     
      voltage_1 -60-103.92j;     
      voltage_2 -60-103.92j;     
      voltage_N 0;     
      nominal_voltage 120;     
     groupid tmeter;
}

object triplex_meter {     
      name R2-12-47-3_tm_411;     
      phases CS;     
      voltage_1 -60+103.92j;     
      voltage_2 -60+103.92j;     
      voltage_N 0;     
      nominal_voltage 120;     
     groupid tmeter;
}

object triplex_node {     
      name R2-12-47-3_tn_412;     
      phases AS;     
      voltage_1 120;     
      voltage_2 120;     
      voltage_N 0;     
      nominal_voltage 120;     
     groupid tnode;
}

object triplex_node {     
      name R2-12-47-3_tn_413;     
      phases BS;     
      voltage_1 -60-103.92j;     
      voltage_2 -60-103.92j;     
      voltage_N 0;     
      nominal_voltage 120;     
     groupid tnode;
}

object triplex_node {     
      name R2-12-47-3_tn_414;     
      phases CS;     
      voltage_1 -60+103.92j;     
      voltage_2 -60+103.92j;     
      voltage_N 0;     
      nominal_voltage 120;     
     groupid tnode;
}

object node {     
      name R2-12-47-3_node_639;     
      phases ABCN;     
      voltage_A 7200+0.0j;     
      voltage_B -3600-6235j;     
      voltage_C -3600+6235j;     
      nominal_voltage 7200;     
     groupid node;
}

object node {     
      name R2-12-47-3_node_680;     
      phases BN;     
      voltage_B -3600-6235j;     
      nominal_voltage 7200;     
     groupid node;
}

object node {     
      name R2-12-47-3_node_696;     
      phases AN;     
      voltage_A 7200+0.0j;     
      nominal_voltage 7200;     
     groupid node;
}

object node {     
      name R2-12-47-3_node_831;     
      phases ABCN;     
      voltage_A 7200+0.0j;     
      voltage_B -3600-6235j;     
      voltage_C -3600+6235j;     
      nominal_voltage 7200;     
     groupid node;
}

object triplex_meter {     
      name R2-12-47-3_tm_328;     
      phases AS;     
      voltage_1 120;     
      voltage_2 120;     
      voltage_N 0;     
      nominal_voltage 120;     
     groupid tmeter;
}

object triplex_node {     
      name R2-12-47-3_tn_329;     
      phases AS;     
      voltage_1 120;     
      voltage_2 120;     
      voltage_N 0;     
      nominal_voltage 120;     
     groupid tnode;
}

object triplex_meter {     
      name R2-12-47-3_tm_330;     
      phases BS;     
      voltage_1 -60-103.92j;     
      voltage_2 -60-103.92j;     
      voltage_N 0;     
      nominal_voltage 120;     
     groupid tmeter;
}

object triplex_node {     
      name R2-12-47-3_tn_331;     
      phases BS;     
      voltage_1 -60-103.92j;     
      voltage_2 -60-103.92j;     
      voltage_N 0;     
      nominal_voltage 120;     
     groupid tnode;
}

object triplex_meter {     
      name R2-12-47-3_tm_434;     
      phases AS;     
      voltage_1 120;     
      voltage_2 120;     
      voltage_N 0;     
      nominal_voltage 120;     
     groupid tmeter;
}

object triplex_meter {     
      name R2-12-47-3_tm_436;     
      phases CS;     
      voltage_1 -60+103.92j;     
      voltage_2 -60+103.92j;     
      voltage_N 0;     
      nominal_voltage 120;     
     groupid tmeter;
}

object triplex_node {     
      name R2-12-47-3_tn_485;     
      phases AS;     
      voltage_1 120;     
      voltage_2 120;     
      voltage_N 0;     
      nominal_voltage 120;     
     groupid tnode;
}

object triplex_node {     
      name R2-12-47-3_tn_480;     
      phases AS;     
      voltage_1 120;     
      voltage_2 120;     
      voltage_N 0;     
      nominal_voltage 120;     
     groupid tnode;
}

object node {     
      name R2-12-47-3_node_823;     
      phases AN;     
      voltage_A 7200+0.0j;     
      nominal_voltage 7200;     
     groupid node;
}

object triplex_meter {     
      name R2-12-47-3_tm_474;     
      phases BS;     
      voltage_1 -60-103.92j;     
      voltage_2 -60-103.92j;     
      voltage_N 0;     
      nominal_voltage 120;     
     groupid tmeter;
}

object node {     
      name R2-12-47-3_node_790;     
      phases ABCN;     
      voltage_A 7200+0.0j;     
      voltage_B -3600-6235j;     
      voltage_C -3600+6235j;     
      nominal_voltage 7200;     
     groupid node;
}

object node {     
      name R2-12-47-3_node_411;     
      phases CN;     
      voltage_C -3600+6235j;     
      nominal_voltage 7200;     
     groupid node;
}

object triplex_node {     
      name R2-12-47-3_tn_318;     
      phases AS;     
      voltage_1 120;     
      voltage_2 120;     
      voltage_N 0;     
      nominal_voltage 120;     
     groupid tnode;
}

object node {     
      name R2-12-47-3_node_418;     
      phases AN;     
      voltage_A 7200+0.0j;     
      nominal_voltage 7200;     
     groupid node;
}

object triplex_node {     
      name R2-12-47-3_tn_320;     
      phases CS;     
      voltage_1 -60+103.92j;     
      voltage_2 -60+103.92j;     
      voltage_N 0;     
      nominal_voltage 120;     
     groupid tnode;
}

object node {     
      name R2-12-47-3_node_566;     
      phases ABCN;     
      voltage_A 7200+0.0j;     
      voltage_B -3600-6235j;     
      voltage_C -3600+6235j;     
      nominal_voltage 7200;     
     groupid node;
}

object node {     
      name R2-12-47-3_node_642;     
      phases AN;     
      voltage_A 7200+0.0j;     
      nominal_voltage 7200;     
     groupid node;
}

object node {     
      name R2-12-47-3_node_554;     
      phases ABCN;     
      voltage_A 7200+0.0j;     
      voltage_B -3600-6235j;     
      voltage_C -3600+6235j;     
      nominal_voltage 7200;     
     groupid node;
}

object node {     
      name R2-12-47-3_node_557;     
      phases ABCN;     
      voltage_A 7200+0.0j;     
      voltage_B -3600-6235j;     
      voltage_C -3600+6235j;     
      nominal_voltage 7200;     
     groupid node;
}

object triplex_meter {     
      name R2-12-47-3_tm_324;     
      phases BS;     
      voltage_1 -60-103.92j;     
      voltage_2 -60-103.92j;     
      voltage_N 0;     
      nominal_voltage 120;     
     groupid tmeter;
}

object triplex_meter {     
      name R2-12-47-3_tm_325;     
      phases CS;     
      voltage_1 -60+103.92j;     
      voltage_2 -60+103.92j;     
      voltage_N 0;     
      nominal_voltage 120;     
     groupid tmeter;
}

object triplex_node {     
      name R2-12-47-3_tn_326;     
      phases CS;     
      voltage_1 -60+103.92j;     
      voltage_2 -60+103.92j;     
      voltage_N 0;     
      nominal_voltage 120;     
     groupid tnode;
}

object triplex_meter {     
      name R2-12-47-3_tm_412;     
      phases AS;     
      voltage_1 120;     
      voltage_2 120;     
      voltage_N 0;     
      nominal_voltage 120;     
     groupid tmeter;
}

object triplex_meter {     
      name R2-12-47-3_tm_413;     
      phases BS;     
      voltage_1 -60-103.92j;     
      voltage_2 -60-103.92j;     
      voltage_N 0;     
      nominal_voltage 120;     
     groupid tmeter;
}

object triplex_meter {     
      name R2-12-47-3_tm_414;     
      phases CS;     
      voltage_1 -60+103.92j;     
      voltage_2 -60+103.92j;     
      voltage_N 0;     
      nominal_voltage 120;     
     groupid tmeter;
}

object triplex_node {     
      name R2-12-47-3_tn_415;     
      phases AS;     
      voltage_1 120;     
      voltage_2 120;     
      voltage_N 0;     
      nominal_voltage 120;     
     groupid tnode;
}

object triplex_node {     
      name R2-12-47-3_tn_416;     
      phases BS;     
      voltage_1 -60-103.92j;     
      voltage_2 -60-103.92j;     
      voltage_N 0;     
      nominal_voltage 120;     
     groupid tnode;
}

object triplex_node {     
      name R2-12-47-3_tn_417;     
      phases CS;     
      voltage_1 -60+103.92j;     
      voltage_2 -60+103.92j;     
      voltage_N 0;     
      nominal_voltage 120;     
     groupid tnode;
}

object node {     
      name R2-12-47-3_node_640;     
      phases ABCN;     
      voltage_A 7200+0.0j;     
      voltage_B -3600-6235j;     
      voltage_C -3600+6235j;     
      nominal_voltage 7200;     
     groupid node;
}

object triplex_node {     
      name R2-12-47-3_tn_441;     
      phases BS;     
      voltage_1 -60-103.92j;     
      voltage_2 -60-103.92j;     
      voltage_N 0;     
      nominal_voltage 120;     
     groupid tnode;
}

object node {     
      name R2-12-47-3_node_820;     
      phases BN;     
      voltage_B -3600-6235j;     
      nominal_voltage 7200;     
     groupid node;
}

object node {     
      name R2-12-47-3_node_695;     
      phases AN;     
      voltage_A 7200+0.0j;     
      nominal_voltage 7200;     
     groupid node;
}

object triplex_meter {     
      name R2-12-47-3_tm_329;     
      phases AS;     
      voltage_1 120;     
      voltage_2 120;     
      voltage_N 0;     
      nominal_voltage 120;     
     groupid tmeter;
}

object triplex_meter {     
      name R2-12-47-3_tm_331;     
      phases BS;     
      voltage_1 -60-103.92j;     
      voltage_2 -60-103.92j;     
      voltage_N 0;     
      nominal_voltage 120;     
     groupid tmeter;
}

object triplex_meter {     
      name R2-12-47-3_tm_485;     
      phases AS;     
      voltage_1 120;     
      voltage_2 120;     
      voltage_N 0;     
      nominal_voltage 120;     
     groupid tmeter;
}

object triplex_meter {     
      name R2-12-47-3_tm_480;     
      phases AS;     
      voltage_1 120;     
      voltage_2 120;     
      voltage_N 0;     
      nominal_voltage 120;     
     groupid tmeter;
}

object triplex_node {     
      name R2-12-47-3_tn_479;     
      phases AS;     
      voltage_1 120;     
      voltage_2 120;     
      voltage_N 0;     
      nominal_voltage 120;     
     groupid tnode;
}

object triplex_node {     
      name R2-12-47-3_tn_314;     
      phases CS;     
      voltage_1 -60+103.92j;     
      voltage_2 -60+103.92j;     
      voltage_N 0;     
      nominal_voltage 120;     
     groupid tnode;
}

object node {     
      name R2-12-47-3_node_410;     
      phases CN;     
      voltage_C -3600+6235j;     
      nominal_voltage 7200;     
     groupid node;
}

object node {     
      name R2-12-47-3_node_412;     
      phases CN;     
      voltage_C -3600+6235j;     
      nominal_voltage 7200;     
     groupid node;
}

object triplex_meter {     
      name R2-12-47-3_tm_318;     
      phases AS;     
      voltage_1 120;     
      voltage_2 120;     
      voltage_N 0;     
      nominal_voltage 120;     
     groupid tmeter;
}

object triplex_node {     
      name R2-12-47-3_tn_319;     
      phases AS;     
      voltage_1 120;     
      voltage_2 120;     
      voltage_N 0;     
      nominal_voltage 120;     
     groupid tnode;
}

object triplex_meter {     
      name R2-12-47-3_tm_320;     
      phases CS;     
      voltage_1 -60+103.92j;     
      voltage_2 -60+103.92j;     
      voltage_N 0;     
      nominal_voltage 120;     
     groupid tmeter;
}

object node {     
      name R2-12-47-3_node_590;     
      phases ABCN;     
      voltage_A 7200+0.0j;     
      voltage_B -3600-6235j;     
      voltage_C -3600+6235j;     
      nominal_voltage 7200;     
     groupid node;
}

object node {     
      name R2-12-47-3_node_567;     
      phases CN;     
      voltage_C -3600+6235j;     
      nominal_voltage 7200;     
     groupid node;
}

object node {     
      name R2-12-47-3_node_568;     
      phases ABCN;     
      voltage_A 7200+0.0j;     
      voltage_B -3600-6235j;     
      voltage_C -3600+6235j;     
      nominal_voltage 7200;     
     groupid node;
}

object triplex_node {     
      name R2-12-47-3_tn_421;     
      phases AS;     
      voltage_1 120;     
      voltage_2 120;     
      voltage_N 0;     
      nominal_voltage 120;     
     groupid tnode;
}

object node {     
      name R2-12-47-3_node_555;     
      phases AN;     
      voltage_A 7200+0.0j;     
      nominal_voltage 7200;     
     groupid node;
}

object node {     
      name R2-12-47-3_node_556;     
      phases ABCN;     
      voltage_A 7200+0.0j;     
      voltage_B -3600-6235j;     
      voltage_C -3600+6235j;     
      nominal_voltage 7200;     
     groupid node;
}

object triplex_node {     
      name R2-12-47-3_tn_365;     
      phases AS;     
      voltage_1 120;     
      voltage_2 120;     
      voltage_N 0;     
      nominal_voltage 120;     
     groupid tnode;
}

object triplex_node {     
      name R2-12-47-3_tn_366;     
      phases BS;     
      voltage_1 -60-103.92j;     
      voltage_2 -60-103.92j;     
      voltage_N 0;     
      nominal_voltage 120;     
     groupid tnode;
}

object triplex_node {     
      name R2-12-47-3_tn_367;     
      phases CS;     
      voltage_1 -60+103.92j;     
      voltage_2 -60+103.92j;     
      voltage_N 0;     
      nominal_voltage 120;     
     groupid tnode;
}

object node {     
      name R2-12-47-3_node_558;     
      phases ABCN;     
      voltage_A 7200+0.0j;     
      voltage_B -3600-6235j;     
      voltage_C -3600+6235j;     
      nominal_voltage 7200;     
     groupid node;
}

object triplex_meter {     
      name R2-12-47-3_tm_326;     
      phases CS;     
      voltage_1 -60+103.92j;     
      voltage_2 -60+103.92j;     
      voltage_N 0;     
      nominal_voltage 120;     
     groupid tmeter;
}

object triplex_meter {     
      name R2-12-47-3_tm_415;     
      phases AS;     
      voltage_1 120;     
      voltage_2 120;     
      voltage_N 0;     
      nominal_voltage 120;     
     groupid tmeter;
}

object triplex_meter {     
      name R2-12-47-3_tm_416;     
      phases BS;     
      voltage_1 -60-103.92j;     
      voltage_2 -60-103.92j;     
      voltage_N 0;     
      nominal_voltage 120;     
     groupid tmeter;
}

object triplex_meter {     
      name R2-12-47-3_tm_417;     
      phases CS;     
      voltage_1 -60+103.92j;     
      voltage_2 -60+103.92j;     
      voltage_N 0;     
      nominal_voltage 120;     
     groupid tmeter;
}

object triplex_node {     
      name R2-12-47-3_tn_418;     
      phases AS;     
      voltage_1 120;     
      voltage_2 120;     
      voltage_N 0;     
      nominal_voltage 120;     
     groupid tnode;
}

object triplex_node {     
      name R2-12-47-3_tn_419;     
      phases BS;     
      voltage_1 -60-103.92j;     
      voltage_2 -60-103.92j;     
      voltage_N 0;     
      nominal_voltage 120;     
     groupid tnode;
}

object triplex_node {     
      name R2-12-47-3_tn_420;     
      phases CS;     
      voltage_1 -60+103.92j;     
      voltage_2 -60+103.92j;     
      voltage_N 0;     
      nominal_voltage 120;     
     groupid tnode;
}

object node {     
      name R2-12-47-3_node_641;     
      phases ABCN;     
      voltage_A 7200+0.0j;     
      voltage_B -3600-6235j;     
      voltage_C -3600+6235j;     
      nominal_voltage 7200;     
     groupid node;
}

object triplex_meter {     
      name R2-12-47-3_tm_441;     
      phases BS;     
      voltage_1 -60-103.92j;     
      voltage_2 -60-103.92j;     
      voltage_N 0;     
      nominal_voltage 120;     
     groupid tmeter;
}

object triplex_node {     
      name R2-12-47-3_tn_440;     
      phases BS;     
      voltage_1 -60-103.92j;     
      voltage_2 -60-103.92j;     
      voltage_N 0;     
      nominal_voltage 120;     
     groupid tnode;
}

object triplex_node {     
      name R2-12-47-3_tn_455;     
      phases AS;     
      voltage_1 120;     
      voltage_2 120;     
      voltage_N 0;     
      nominal_voltage 120;     
     groupid tnode;
}

object node {     
      name R2-12-47-3_node_794;     
      phases AN;     
      voltage_A 7200+0.0j;     
      nominal_voltage 7200;     
     groupid node;
}

object triplex_meter {     
      name R2-12-47-3_tm_479;     
      phases AS;     
      voltage_1 120;     
      voltage_2 120;     
      voltage_N 0;     
      nominal_voltage 120;     
     groupid tmeter;
}

object triplex_meter {     
      name R2-12-47-3_tm_314;     
      phases CS;     
      voltage_1 -60+103.92j;     
      voltage_2 -60+103.92j;     
      voltage_N 0;     
      nominal_voltage 120;     
     groupid tmeter;
}

object triplex_node {     
      name R2-12-47-3_tn_315;     
      phases CS;     
      voltage_1 -60+103.92j;     
      voltage_2 -60+103.92j;     
      voltage_N 0;     
      nominal_voltage 120;     
     groupid tnode;
}

object triplex_meter {     
      name R2-12-47-3_tm_319;     
      phases AS;     
      voltage_1 120;     
      voltage_2 120;     
      voltage_N 0;     
      nominal_voltage 120;     
     groupid tmeter;
}

object node {     
      name R2-12-47-3_node_591;     
      phases CN;     
      voltage_C -3600+6235j;     
      nominal_voltage 7200;     
     groupid node;
}

object node {     
      name R2-12-47-3_node_592;     
      phases CN;     
      voltage_C -3600+6235j;     
      nominal_voltage 7200;     
     groupid node;
}

object node {     
      name R2-12-47-3_node_593;     
      phases ABCN;     
      voltage_A 7200+0.0j;     
      voltage_B -3600-6235j;     
      voltage_C -3600+6235j;     
      nominal_voltage 7200;     
     groupid node;
}

object triplex_node {     
      name R2-12-47-3_tn_374;     
      phases CS;     
      voltage_1 -60+103.92j;     
      voltage_2 -60+103.92j;     
      voltage_N 0;     
      nominal_voltage 120;     
     groupid tnode;
}

object node {     
      name R2-12-47-3_node_569;     
      phases BN;     
      voltage_B -3600-6235j;     
      nominal_voltage 7200;     
     groupid node;
}

object node {     
      name R2-12-47-3_node_570;     
      phases BN;     
      voltage_B -3600-6235j;     
      nominal_voltage 7200;     
     groupid node;
}

object triplex_meter {     
      name R2-12-47-3_tm_421;     
      phases AS;     
      voltage_1 120;     
      voltage_2 120;     
      voltage_N 0;     
      nominal_voltage 120;     
     groupid tmeter;
}

object triplex_node {     
      name R2-12-47-3_tn_364;     
      phases AS;     
      voltage_1 120;     
      voltage_2 120;     
      voltage_N 0;     
      nominal_voltage 120;     
     groupid tnode;
}

object node {     
      name R2-12-47-3_node_560;     
      phases ABCN;     
      voltage_A 7200+0.0j;     
      voltage_B -3600-6235j;     
      voltage_C -3600+6235j;     
      nominal_voltage 7200;     
     groupid node;
}

object triplex_meter {     
      name R2-12-47-3_tm_365;     
      phases AS;     
      voltage_1 120;     
      voltage_2 120;     
      voltage_N 0;     
      nominal_voltage 120;     
     groupid tmeter;
}

object triplex_meter {     
      name R2-12-47-3_tm_366;     
      phases BS;     
      voltage_1 -60-103.92j;     
      voltage_2 -60-103.92j;     
      voltage_N 0;     
      nominal_voltage 120;     
     groupid tmeter;
}

object triplex_meter {     
      name R2-12-47-3_tm_367;     
      phases CS;     
      voltage_1 -60+103.92j;     
      voltage_2 -60+103.92j;     
      voltage_N 0;     
      nominal_voltage 120;     
     groupid tmeter;
}

object node {     
      name R2-12-47-3_node_803;     
      phases ABCN;     
      voltage_A 7200+0.0j;     
      voltage_B -3600-6235j;     
      voltage_C -3600+6235j;     
      nominal_voltage 7200;     
     groupid node;
}

object triplex_node {     
      name R2-12-47-3_tn_368;     
      phases AS;     
      voltage_1 120;     
      voltage_2 120;     
      voltage_N 0;     
      nominal_voltage 120;     
     groupid tnode;
}

object triplex_node {     
      name R2-12-47-3_tn_369;     
      phases BS;     
      voltage_1 -60-103.92j;     
      voltage_2 -60-103.92j;     
      voltage_N 0;     
      nominal_voltage 120;     
     groupid tnode;
}

object triplex_node {     
      name R2-12-47-3_tn_370;     
      phases CS;     
      voltage_1 -60+103.92j;     
      voltage_2 -60+103.92j;     
      voltage_N 0;     
      nominal_voltage 120;     
     groupid tnode;
}

object triplex_meter {     
      name R2-12-47-3_tm_418;     
      phases AS;     
      voltage_1 120;     
      voltage_2 120;     
      voltage_N 0;     
      nominal_voltage 120;     
     groupid tmeter;
}

object triplex_meter {     
      name R2-12-47-3_tm_419;     
      phases BS;     
      voltage_1 -60-103.92j;     
      voltage_2 -60-103.92j;     
      voltage_N 0;     
      nominal_voltage 120;     
     groupid tmeter;
}

object triplex_meter {     
      name R2-12-47-3_tm_420;     
      phases CS;     
      voltage_1 -60+103.92j;     
      voltage_2 -60+103.92j;     
      voltage_N 0;     
      nominal_voltage 120;     
     groupid tmeter;
}

object node {     
      name R2-12-47-3_node_819;     
      phases ABCN;     
      voltage_A 7200+0.0j;     
      voltage_B -3600-6235j;     
      voltage_C -3600+6235j;     
      nominal_voltage 7200;     
     groupid node;
}

object triplex_meter {     
      name R2-12-47-3_tm_440;     
      phases BS;     
      voltage_1 -60-103.92j;     
      voltage_2 -60-103.92j;     
      voltage_N 0;     
      nominal_voltage 120;     
     groupid tmeter;
}

object triplex_meter {     
      name R2-12-47-3_tm_455;     
      phases AS;     
      voltage_1 120;     
      voltage_2 120;     
      voltage_N 0;     
      nominal_voltage 120;     
     groupid tmeter;
}

object triplex_node {     
      name R2-12-47-3_tn_454;     
      phases AS;     
      voltage_1 120;     
      voltage_2 120;     
      voltage_N 0;     
      nominal_voltage 120;     
     groupid tnode;
}

object triplex_meter {     
      name R2-12-47-3_tm_315;     
      phases CS;     
      voltage_1 -60+103.92j;     
      voltage_2 -60+103.92j;     
      voltage_N 0;     
      nominal_voltage 120;     
     groupid tmeter;
}

object triplex_node {     
      name R2-12-47-3_tn_379;     
      phases CS;     
      voltage_1 -60+103.92j;     
      voltage_2 -60+103.92j;     
      voltage_N 0;     
      nominal_voltage 120;     
     groupid tnode;
}

object node {     
      name R2-12-47-3_node_594;     
      phases CN;     
      voltage_C -3600+6235j;     
      nominal_voltage 7200;     
     groupid node;
}

object node {     
      name R2-12-47-3_node_596;     
      phases CN;     
      voltage_C -3600+6235j;     
      nominal_voltage 7200;     
     groupid node;
}

object triplex_meter {     
      name R2-12-47-3_tm_374;     
      phases CS;     
      voltage_1 -60+103.92j;     
      voltage_2 -60+103.92j;     
      voltage_N 0;     
...